  Page 1                                    Thu Nov  2 15:41:57 2023

  ******************************************************************
  *                           E P A N E T                          *
  *                   Hydraulic and Water Quality                  *
  *                   Analysis for Pipe Networks                   *
  *                    Version 2.00.2023.06.07.DHI                 *
  ******************************************************************
  
   
      Input Data File ................... D:\GitHub\mikeplus-python\tests\testdata\Db\Average DayDemand GPM\AverageDayDemandBase.inp
      Number of Junctions................ 593
      Number of Reservoirs............... 1
      Number of Tanks ................... 0
      Number of Pipes ................... 611
      Number of Pumps ................... 3
      Number of Valves .................. 1
      Headloss Formula .................. Hazen-Williams
      Hydraulic Timestep ................ 5.00 min
      Hydraulic Accuracy ................ 0.010000
      Status Check Frequency ............ 2
      Maximum Trials Checked ............ 10
      Damping Limit Threshold ........... 0.000000
      Maximum Trials .................... 100
      Quality Analysis .................. None
      Specific Gravity .................. 1.00
      Relative Kinematic Viscosity ...... 1.00
      Relative Chemical Diffusivity ..... 1.00
      Demand Multiplier ................. 1.00
      Total Duration .................... 1440.00 min
      Reporting Criteria:
         No Nodes
         No Links
   
  Analysis begun Thu Nov  2 15:41:57 2023

   
  Hydraulic Status:
  -----------------------------------------------------------------------
     0:00:00: Balancing the network:
              Trial  1: relative flow change = 3.943060
              PRV WTP-PS-PRV switched from active to open
              Trial  2: relative flow change = 0.369145
              Trial  3: relative flow change = 0.074694
              Trial  4: relative flow change = 0.020163
              Trial  5: relative flow change = 0.009449
     0:00:00: Balanced after 5 trials
     0:00:00: Reservoir WTP is emptying
     0:00:00: PRV WTP-PS-PRV open
   
  WARNING: Negative pressures at 0:00:00 hrs.
  
     0:05:00: Balancing the network:
              Trial  1: relative flow change = 0.001445
     0:05:00: Balanced after 1 trials
   
  WARNING: Negative pressures at 0:05:00 hrs.
  
     0:10:00: Balancing the network:
              Trial  1: relative flow change = 0.000034
     0:10:00: Balanced after 1 trials
   
  WARNING: Negative pressures at 0:10:00 hrs.
  
     0:15:00: Balancing the network:
              Trial  1: relative flow change = 0.000000
     0:15:00: Balanced after 1 trials
   
  WARNING: Negative pressures at 0:15:00 hrs.
  
     0:20:00: Balancing the network:
              Trial  1: relative flow change = 0.000000
     0:20:00: Balanced after 1 trials
   
  WARNING: Negative pressures at 0:20:00 hrs.
  
     0:25:00: Balancing the network:
              Trial  1: relative flow change = 0.000000
     0:25:00: Balanced after 1 trials
   
  WARNING: Negative pressures at 0:25:00 hrs.
  
     0:30:00: Balancing the network:
              Trial  1: relative flow change = 0.000000
     0:30:00: Balanced after 1 trials
   
  WARNING: Negative pressures at 0:30:00 hrs.
  
     0:35:00: Balancing the network:
              Trial  1: relative flow change = 0.000000
     0:35:00: Balanced after 1 trials
   
  WARNING: Negative pressures at 0:35:00 hrs.
  
     0:40:00: Balancing the network:
              Trial  1: relative flow change = 0.000000
     0:40:00: Balanced after 1 trials
   
  WARNING: Negative pressures at 0:40:00 hrs.
  
     0:45:00: Balancing the network:
              Trial  1: relative flow change = 0.000000
     0:45:00: Balanced after 1 trials
   
  WARNING: Negative pressures at 0:45:00 hrs.
  
     0:50:00: Balancing the network:
              Trial  1: relative flow change = 0.000000
     0:50:00: Balanced after 1 trials
   
  WARNING: Negative pressures at 0:50:00 hrs.
  
     0:55:00: Balancing the network:
              Trial  1: relative flow change = 0.000000
     0:55:00: Balanced after 1 trials
   
  WARNING: Negative pressures at 0:55:00 hrs.
  
     1:00:00: Balancing the network:
              Trial  1: relative flow change = 0.469789
              Trial  2: relative flow change = 0.000009
     1:00:00: Balanced after 2 trials
   
  WARNING: Negative pressures at 1:00:00 hrs.
  
     1:05:00: Balancing the network:
              Trial  1: relative flow change = 0.000000
     1:05:00: Balanced after 1 trials
   
  WARNING: Negative pressures at 1:05:00 hrs.
  
     1:10:00: Balancing the network:
              Trial  1: relative flow change = 0.000000
     1:10:00: Balanced after 1 trials
   
  WARNING: Negative pressures at 1:10:00 hrs.
  
     1:15:00: Balancing the network:
              Trial  1: relative flow change = 0.000000
     1:15:00: Balanced after 1 trials
   
  WARNING: Negative pressures at 1:15:00 hrs.
  
     1:20:00: Balancing the network:
              Trial  1: relative flow change = 0.000000
     1:20:00: Balanced after 1 trials
   
  WARNING: Negative pressures at 1:20:00 hrs.
  
     1:25:00: Balancing the network:
              Trial  1: relative flow change = 0.000000
     1:25:00: Balanced after 1 trials
   
  WARNING: Negative pressures at 1:25:00 hrs.
  
     1:30:00: Balancing the network:
              Trial  1: relative flow change = 0.000000
     1:30:00: Balanced after 1 trials
   
  WARNING: Negative pressures at 1:30:00 hrs.
  
     1:35:00: Balancing the network:
              Trial  1: relative flow change = 0.000000
     1:35:00: Balanced after 1 trials
   
  WARNING: Negative pressures at 1:35:00 hrs.
  
     1:40:00: Balancing the network:
              Trial  1: relative flow change = 0.000000
     1:40:00: Balanced after 1 trials
   
  WARNING: Negative pressures at 1:40:00 hrs.
  
     1:45:00: Balancing the network:
              Trial  1: relative flow change = 0.000000
     1:45:00: Balanced after 1 trials
   
  WARNING: Negative pressures at 1:45:00 hrs.
  
     1:50:00: Balancing the network:
              Trial  1: relative flow change = 0.000000
     1:50:00: Balanced after 1 trials
   
  WARNING: Negative pressures at 1:50:00 hrs.
  
     1:55:00: Balancing the network:
              Trial  1: relative flow change = 0.000000
     1:55:00: Balanced after 1 trials
   
  WARNING: Negative pressures at 1:55:00 hrs.
  
     2:00:00: Balancing the network:
              Trial  1: relative flow change = 0.000000
     2:00:00: Balanced after 1 trials
   
  WARNING: Negative pressures at 2:00:00 hrs.
  
     2:05:00: Balancing the network:
              Trial  1: relative flow change = 0.000000
     2:05:00: Balanced after 1 trials
   
  WARNING: Negative pressures at 2:05:00 hrs.
  
     2:10:00: Balancing the network:
              Trial  1: relative flow change = 0.000000
     2:10:00: Balanced after 1 trials
   
  WARNING: Negative pressures at 2:10:00 hrs.
  
     2:15:00: Balancing the network:
              Trial  1: relative flow change = 0.000000
     2:15:00: Balanced after 1 trials
   
  WARNING: Negative pressures at 2:15:00 hrs.
  
     2:20:00: Balancing the network:
              Trial  1: relative flow change = 0.000000
     2:20:00: Balanced after 1 trials
   
  WARNING: Negative pressures at 2:20:00 hrs.
  
     2:25:00: Balancing the network:
              Trial  1: relative flow change = 0.000000
     2:25:00: Balanced after 1 trials
   
  WARNING: Negative pressures at 2:25:00 hrs.
  
     2:30:00: Balancing the network:
              Trial  1: relative flow change = 0.000000
     2:30:00: Balanced after 1 trials
   
  WARNING: Negative pressures at 2:30:00 hrs.
  
     2:35:00: Balancing the network:
              Trial  1: relative flow change = 0.000000
     2:35:00: Balanced after 1 trials
   
  WARNING: Negative pressures at 2:35:00 hrs.
  
     2:40:00: Balancing the network:
              Trial  1: relative flow change = 0.000000
     2:40:00: Balanced after 1 trials
   
  WARNING: Negative pressures at 2:40:00 hrs.
  
     2:45:00: Balancing the network:
              Trial  1: relative flow change = 0.000000
     2:45:00: Balanced after 1 trials
   
  WARNING: Negative pressures at 2:45:00 hrs.
  
     2:50:00: Balancing the network:
              Trial  1: relative flow change = 0.000000
     2:50:00: Balanced after 1 trials
   
  WARNING: Negative pressures at 2:50:00 hrs.
  
     2:55:00: Balancing the network:
              Trial  1: relative flow change = 0.000000
     2:55:00: Balanced after 1 trials
   
  WARNING: Negative pressures at 2:55:00 hrs.
  
     3:00:00: Balancing the network:
              Trial  1: relative flow change = 0.000000
     3:00:00: Balanced after 1 trials
   
  WARNING: Negative pressures at 3:00:00 hrs.
  
     3:05:00: Balancing the network:
              Trial  1: relative flow change = 0.000000
     3:05:00: Balanced after 1 trials
   
  WARNING: Negative pressures at 3:05:00 hrs.
  
     3:10:00: Balancing the network:
              Trial  1: relative flow change = 0.000000
     3:10:00: Balanced after 1 trials
   
  WARNING: Negative pressures at 3:10:00 hrs.
  
     3:15:00: Balancing the network:
              Trial  1: relative flow change = 0.000000
     3:15:00: Balanced after 1 trials
   
  WARNING: Negative pressures at 3:15:00 hrs.
  
     3:20:00: Balancing the network:
              Trial  1: relative flow change = 0.000000
     3:20:00: Balanced after 1 trials
   
  WARNING: Negative pressures at 3:20:00 hrs.
  
     3:25:00: Balancing the network:
              Trial  1: relative flow change = 0.000000
     3:25:00: Balanced after 1 trials
   
  WARNING: Negative pressures at 3:25:00 hrs.
  
     3:30:00: Balancing the network:
              Trial  1: relative flow change = 0.000000
     3:30:00: Balanced after 1 trials
   
  WARNING: Negative pressures at 3:30:00 hrs.
  
     3:35:00: Balancing the network:
              Trial  1: relative flow change = 0.000000
     3:35:00: Balanced after 1 trials
   
  WARNING: Negative pressures at 3:35:00 hrs.
  
     3:40:00: Balancing the network:
              Trial  1: relative flow change = 0.000000
     3:40:00: Balanced after 1 trials
   
  WARNING: Negative pressures at 3:40:00 hrs.
  
     3:45:00: Balancing the network:
              Trial  1: relative flow change = 0.000000
     3:45:00: Balanced after 1 trials
   
  WARNING: Negative pressures at 3:45:00 hrs.
  
     3:50:00: Balancing the network:
              Trial  1: relative flow change = 0.000000
     3:50:00: Balanced after 1 trials
   
  WARNING: Negative pressures at 3:50:00 hrs.
  
     3:55:00: Balancing the network:
              Trial  1: relative flow change = 0.000000
     3:55:00: Balanced after 1 trials
   
  WARNING: Negative pressures at 3:55:00 hrs.
  
     4:00:00: Balancing the network:
              Trial  1: relative flow change = 0.000000
     4:00:00: Balanced after 1 trials
   
  WARNING: Negative pressures at 4:00:00 hrs.
  
     4:05:00: Balancing the network:
              Trial  1: relative flow change = 0.000000
     4:05:00: Balanced after 1 trials
   
  WARNING: Negative pressures at 4:05:00 hrs.
  
     4:10:00: Balancing the network:
              Trial  1: relative flow change = 0.000000
     4:10:00: Balanced after 1 trials
   
  WARNING: Negative pressures at 4:10:00 hrs.
  
     4:15:00: Balancing the network:
              Trial  1: relative flow change = 0.000000
     4:15:00: Balanced after 1 trials
   
  WARNING: Negative pressures at 4:15:00 hrs.
  
     4:20:00: Balancing the network:
              Trial  1: relative flow change = 0.000000
     4:20:00: Balanced after 1 trials
   
  WARNING: Negative pressures at 4:20:00 hrs.
  
     4:25:00: Balancing the network:
              Trial  1: relative flow change = 0.000000
     4:25:00: Balanced after 1 trials
   
  WARNING: Negative pressures at 4:25:00 hrs.
  
     4:30:00: Balancing the network:
              Trial  1: relative flow change = 0.000000
     4:30:00: Balanced after 1 trials
   
  WARNING: Negative pressures at 4:30:00 hrs.
  
     4:35:00: Balancing the network:
              Trial  1: relative flow change = 0.000000
     4:35:00: Balanced after 1 trials
   
  WARNING: Negative pressures at 4:35:00 hrs.
  
     4:40:00: Balancing the network:
              Trial  1: relative flow change = 0.000000
     4:40:00: Balanced after 1 trials
   
  WARNING: Negative pressures at 4:40:00 hrs.
  
     4:45:00: Balancing the network:
              Trial  1: relative flow change = 0.000000
     4:45:00: Balanced after 1 trials
   
  WARNING: Negative pressures at 4:45:00 hrs.
  
     4:50:00: Balancing the network:
              Trial  1: relative flow change = 0.000000
     4:50:00: Balanced after 1 trials
   
  WARNING: Negative pressures at 4:50:00 hrs.
  
     4:55:00: Balancing the network:
              Trial  1: relative flow change = 0.000000
     4:55:00: Balanced after 1 trials
   
  WARNING: Negative pressures at 4:55:00 hrs.
  
     5:00:00: Balancing the network:
              Trial  1: relative flow change = 0.000000
     5:00:00: Balanced after 1 trials
   
  WARNING: Negative pressures at 5:00:00 hrs.
  
     5:05:00: Balancing the network:
              Trial  1: relative flow change = 0.000000
     5:05:00: Balanced after 1 trials
   
  WARNING: Negative pressures at 5:05:00 hrs.
  
     5:10:00: Balancing the network:
              Trial  1: relative flow change = 0.000000
     5:10:00: Balanced after 1 trials
   
  WARNING: Negative pressures at 5:10:00 hrs.
  
     5:15:00: Balancing the network:
              Trial  1: relative flow change = 0.000000
     5:15:00: Balanced after 1 trials
   
  WARNING: Negative pressures at 5:15:00 hrs.
  
     5:20:00: Balancing the network:
              Trial  1: relative flow change = 0.000000
     5:20:00: Balanced after 1 trials
   
  WARNING: Negative pressures at 5:20:00 hrs.
  
     5:25:00: Balancing the network:
              Trial  1: relative flow change = 0.000000
     5:25:00: Balanced after 1 trials
   
  WARNING: Negative pressures at 5:25:00 hrs.
  
     5:30:00: Balancing the network:
              Trial  1: relative flow change = 0.000000
     5:30:00: Balanced after 1 trials
   
  WARNING: Negative pressures at 5:30:00 hrs.
  
     5:35:00: Balancing the network:
              Trial  1: relative flow change = 0.000000
     5:35:00: Balanced after 1 trials
   
  WARNING: Negative pressures at 5:35:00 hrs.
  
     5:40:00: Balancing the network:
              Trial  1: relative flow change = 0.000000
     5:40:00: Balanced after 1 trials
   
  WARNING: Negative pressures at 5:40:00 hrs.
  
     5:45:00: Balancing the network:
              Trial  1: relative flow change = 0.000000
     5:45:00: Balanced after 1 trials
   
  WARNING: Negative pressures at 5:45:00 hrs.
  
     5:50:00: Balancing the network:
              Trial  1: relative flow change = 0.000000
     5:50:00: Balanced after 1 trials
   
  WARNING: Negative pressures at 5:50:00 hrs.
  
     5:55:00: Balancing the network:
              Trial  1: relative flow change = 0.000000
     5:55:00: Balanced after 1 trials
   
  WARNING: Negative pressures at 5:55:00 hrs.
  
     6:00:00: Balancing the network:
              Trial  1: relative flow change = 0.369241
              Trial  2: relative flow change = 0.000012
     6:00:00: Balanced after 2 trials
   
  WARNING: Negative pressures at 6:00:00 hrs.
  
     6:05:00: Balancing the network:
              Trial  1: relative flow change = 0.000000
     6:05:00: Balanced after 1 trials
   
  WARNING: Negative pressures at 6:05:00 hrs.
  
     6:10:00: Balancing the network:
              Trial  1: relative flow change = 0.000000
     6:10:00: Balanced after 1 trials
   
  WARNING: Negative pressures at 6:10:00 hrs.
  
     6:15:00: Balancing the network:
              Trial  1: relative flow change = 0.000000
     6:15:00: Balanced after 1 trials
   
  WARNING: Negative pressures at 6:15:00 hrs.
  
     6:20:00: Balancing the network:
              Trial  1: relative flow change = 0.000000
     6:20:00: Balanced after 1 trials
   
  WARNING: Negative pressures at 6:20:00 hrs.
  
     6:25:00: Balancing the network:
              Trial  1: relative flow change = 0.000000
     6:25:00: Balanced after 1 trials
   
  WARNING: Negative pressures at 6:25:00 hrs.
  
     6:30:00: Balancing the network:
              Trial  1: relative flow change = 0.000000
     6:30:00: Balanced after 1 trials
   
  WARNING: Negative pressures at 6:30:00 hrs.
  
     6:35:00: Balancing the network:
              Trial  1: relative flow change = 0.000000
     6:35:00: Balanced after 1 trials
   
  WARNING: Negative pressures at 6:35:00 hrs.
  
     6:40:00: Balancing the network:
              Trial  1: relative flow change = 0.000000
     6:40:00: Balanced after 1 trials
   
  WARNING: Negative pressures at 6:40:00 hrs.
  
     6:45:00: Balancing the network:
              Trial  1: relative flow change = 0.000000
     6:45:00: Balanced after 1 trials
   
  WARNING: Negative pressures at 6:45:00 hrs.
  
     6:50:00: Balancing the network:
              Trial  1: relative flow change = 0.000000
     6:50:00: Balanced after 1 trials
   
  WARNING: Negative pressures at 6:50:00 hrs.
  
     6:55:00: Balancing the network:
              Trial  1: relative flow change = 0.000000
     6:55:00: Balanced after 1 trials
   
  WARNING: Negative pressures at 6:55:00 hrs.
  
     7:00:00: Balancing the network:
              Trial  1: relative flow change = 0.205775
              Trial  2: relative flow change = 0.000001
     7:00:00: Balanced after 2 trials
   
  WARNING: Negative pressures at 7:00:00 hrs.
  
     7:05:00: Balancing the network:
              Trial  1: relative flow change = 0.000000
     7:05:00: Balanced after 1 trials
   
  WARNING: Negative pressures at 7:05:00 hrs.
  
     7:10:00: Balancing the network:
              Trial  1: relative flow change = 0.000000
     7:10:00: Balanced after 1 trials
   
  WARNING: Negative pressures at 7:10:00 hrs.
  
     7:15:00: Balancing the network:
              Trial  1: relative flow change = 0.000000
     7:15:00: Balanced after 1 trials
   
  WARNING: Negative pressures at 7:15:00 hrs.
  
     7:20:00: Balancing the network:
              Trial  1: relative flow change = 0.000000
     7:20:00: Balanced after 1 trials
   
  WARNING: Negative pressures at 7:20:00 hrs.
  
     7:25:00: Balancing the network:
              Trial  1: relative flow change = 0.000000
     7:25:00: Balanced after 1 trials
   
  WARNING: Negative pressures at 7:25:00 hrs.
  
     7:30:00: Balancing the network:
              Trial  1: relative flow change = 0.000000
     7:30:00: Balanced after 1 trials
   
  WARNING: Negative pressures at 7:30:00 hrs.
  
     7:35:00: Balancing the network:
              Trial  1: relative flow change = 0.000000
     7:35:00: Balanced after 1 trials
   
  WARNING: Negative pressures at 7:35:00 hrs.
  
     7:40:00: Balancing the network:
              Trial  1: relative flow change = 0.000000
     7:40:00: Balanced after 1 trials
   
  WARNING: Negative pressures at 7:40:00 hrs.
  
     7:45:00: Balancing the network:
              Trial  1: relative flow change = 0.000000
     7:45:00: Balanced after 1 trials
   
  WARNING: Negative pressures at 7:45:00 hrs.
  
     7:50:00: Balancing the network:
              Trial  1: relative flow change = 0.000000
     7:50:00: Balanced after 1 trials
   
  WARNING: Negative pressures at 7:50:00 hrs.
  
     7:55:00: Balancing the network:
              Trial  1: relative flow change = 0.000000
     7:55:00: Balanced after 1 trials
   
  WARNING: Negative pressures at 7:55:00 hrs.
  
     8:00:00: Balancing the network:
              Trial  1: relative flow change = 0.179877
              Trial  2: relative flow change = 0.000001
     8:00:00: Balanced after 2 trials
   
  WARNING: Negative pressures at 8:00:00 hrs.
  
     8:05:00: Balancing the network:
              Trial  1: relative flow change = 0.000000
     8:05:00: Balanced after 1 trials
   
  WARNING: Negative pressures at 8:05:00 hrs.
  
     8:10:00: Balancing the network:
              Trial  1: relative flow change = 0.000000
     8:10:00: Balanced after 1 trials
   
  WARNING: Negative pressures at 8:10:00 hrs.
  
     8:15:00: Balancing the network:
              Trial  1: relative flow change = 0.000000
     8:15:00: Balanced after 1 trials
   
  WARNING: Negative pressures at 8:15:00 hrs.
  
     8:20:00: Balancing the network:
              Trial  1: relative flow change = 0.000000
     8:20:00: Balanced after 1 trials
   
  WARNING: Negative pressures at 8:20:00 hrs.
  
     8:25:00: Balancing the network:
              Trial  1: relative flow change = 0.000000
     8:25:00: Balanced after 1 trials
   
  WARNING: Negative pressures at 8:25:00 hrs.
  
     8:30:00: Balancing the network:
              Trial  1: relative flow change = 0.000000
     8:30:00: Balanced after 1 trials
   
  WARNING: Negative pressures at 8:30:00 hrs.
  
     8:35:00: Balancing the network:
              Trial  1: relative flow change = 0.000000
     8:35:00: Balanced after 1 trials
   
  WARNING: Negative pressures at 8:35:00 hrs.
  
     8:40:00: Balancing the network:
              Trial  1: relative flow change = 0.000000
     8:40:00: Balanced after 1 trials
   
  WARNING: Negative pressures at 8:40:00 hrs.
  
     8:45:00: Balancing the network:
              Trial  1: relative flow change = 0.000000
     8:45:00: Balanced after 1 trials
   
  WARNING: Negative pressures at 8:45:00 hrs.
  
     8:50:00: Balancing the network:
              Trial  1: relative flow change = 0.000000
     8:50:00: Balanced after 1 trials
   
  WARNING: Negative pressures at 8:50:00 hrs.
  
     8:55:00: Balancing the network:
              Trial  1: relative flow change = 0.000000
     8:55:00: Balanced after 1 trials
   
  WARNING: Negative pressures at 8:55:00 hrs.
  
     9:00:00: Balancing the network:
              Trial  1: relative flow change = 0.231445
              Trial  2: relative flow change = 0.000001
     9:00:00: Balanced after 2 trials
   
  WARNING: Negative pressures at 9:00:00 hrs.
  
     9:05:00: Balancing the network:
              Trial  1: relative flow change = 0.000000
     9:05:00: Balanced after 1 trials
   
  WARNING: Negative pressures at 9:05:00 hrs.
  
     9:10:00: Balancing the network:
              Trial  1: relative flow change = 0.000000
     9:10:00: Balanced after 1 trials
   
  WARNING: Negative pressures at 9:10:00 hrs.
  
     9:15:00: Balancing the network:
              Trial  1: relative flow change = 0.000000
     9:15:00: Balanced after 1 trials
   
  WARNING: Negative pressures at 9:15:00 hrs.
  
     9:20:00: Balancing the network:
              Trial  1: relative flow change = 0.000000
     9:20:00: Balanced after 1 trials
   
  WARNING: Negative pressures at 9:20:00 hrs.
  
     9:25:00: Balancing the network:
              Trial  1: relative flow change = 0.000000
     9:25:00: Balanced after 1 trials
   
  WARNING: Negative pressures at 9:25:00 hrs.
  
     9:30:00: Balancing the network:
              Trial  1: relative flow change = 0.000000
     9:30:00: Balanced after 1 trials
   
  WARNING: Negative pressures at 9:30:00 hrs.
  
     9:35:00: Balancing the network:
              Trial  1: relative flow change = 0.000000
     9:35:00: Balanced after 1 trials
   
  WARNING: Negative pressures at 9:35:00 hrs.
  
     9:40:00: Balancing the network:
              Trial  1: relative flow change = 0.000000
     9:40:00: Balanced after 1 trials
   
  WARNING: Negative pressures at 9:40:00 hrs.
  
     9:45:00: Balancing the network:
              Trial  1: relative flow change = 0.000000
     9:45:00: Balanced after 1 trials
   
  WARNING: Negative pressures at 9:45:00 hrs.
  
     9:50:00: Balancing the network:
              Trial  1: relative flow change = 0.000000
     9:50:00: Balanced after 1 trials
   
  WARNING: Negative pressures at 9:50:00 hrs.
  
     9:55:00: Balancing the network:
              Trial  1: relative flow change = 0.000000
     9:55:00: Balanced after 1 trials
   
  WARNING: Negative pressures at 9:55:00 hrs.
  
    10:00:00: Balancing the network:
              Trial  1: relative flow change = 0.315695
              Trial  2: relative flow change = 0.000001
    10:00:00: Balanced after 2 trials
   
  WARNING: Negative pressures at 10:00:00 hrs.
  
    10:05:00: Balancing the network:
              Trial  1: relative flow change = 0.000000
    10:05:00: Balanced after 1 trials
   
  WARNING: Negative pressures at 10:05:00 hrs.
  
    10:10:00: Balancing the network:
              Trial  1: relative flow change = 0.000000
    10:10:00: Balanced after 1 trials
   
  WARNING: Negative pressures at 10:10:00 hrs.
  
    10:15:00: Balancing the network:
              Trial  1: relative flow change = 0.000000
    10:15:00: Balanced after 1 trials
   
  WARNING: Negative pressures at 10:15:00 hrs.
  
    10:20:00: Balancing the network:
              Trial  1: relative flow change = 0.000000
    10:20:00: Balanced after 1 trials
   
  WARNING: Negative pressures at 10:20:00 hrs.
  
    10:25:00: Balancing the network:
              Trial  1: relative flow change = 0.000000
    10:25:00: Balanced after 1 trials
   
  WARNING: Negative pressures at 10:25:00 hrs.
  
    10:30:00: Balancing the network:
              Trial  1: relative flow change = 0.000000
    10:30:00: Balanced after 1 trials
   
  WARNING: Negative pressures at 10:30:00 hrs.
  
    10:35:00: Balancing the network:
              Trial  1: relative flow change = 0.000000
    10:35:00: Balanced after 1 trials
   
  WARNING: Negative pressures at 10:35:00 hrs.
  
    10:40:00: Balancing the network:
              Trial  1: relative flow change = 0.000000
    10:40:00: Balanced after 1 trials
   
  WARNING: Negative pressures at 10:40:00 hrs.
  
    10:45:00: Balancing the network:
              Trial  1: relative flow change = 0.000000
    10:45:00: Balanced after 1 trials
   
  WARNING: Negative pressures at 10:45:00 hrs.
  
    10:50:00: Balancing the network:
              Trial  1: relative flow change = 0.000000
    10:50:00: Balanced after 1 trials
   
  WARNING: Negative pressures at 10:50:00 hrs.
  
    10:55:00: Balancing the network:
              Trial  1: relative flow change = 0.000000
    10:55:00: Balanced after 1 trials
   
  WARNING: Negative pressures at 10:55:00 hrs.
  
    11:00:00: Balancing the network:
              Trial  1: relative flow change = 0.000000
    11:00:00: Balanced after 1 trials
   
  WARNING: Negative pressures at 11:00:00 hrs.
  
    11:05:00: Balancing the network:
              Trial  1: relative flow change = 0.000000
    11:05:00: Balanced after 1 trials
   
  WARNING: Negative pressures at 11:05:00 hrs.
  
    11:10:00: Balancing the network:
              Trial  1: relative flow change = 0.000000
    11:10:00: Balanced after 1 trials
   
  WARNING: Negative pressures at 11:10:00 hrs.
  
    11:15:00: Balancing the network:
              Trial  1: relative flow change = 0.000000
    11:15:00: Balanced after 1 trials
   
  WARNING: Negative pressures at 11:15:00 hrs.
  
    11:20:00: Balancing the network:
              Trial  1: relative flow change = 0.000000
    11:20:00: Balanced after 1 trials
   
  WARNING: Negative pressures at 11:20:00 hrs.
  
    11:25:00: Balancing the network:
              Trial  1: relative flow change = 0.000000
    11:25:00: Balanced after 1 trials
   
  WARNING: Negative pressures at 11:25:00 hrs.
  
    11:30:00: Balancing the network:
              Trial  1: relative flow change = 0.000000
    11:30:00: Balanced after 1 trials
   
  WARNING: Negative pressures at 11:30:00 hrs.
  
    11:35:00: Balancing the network:
              Trial  1: relative flow change = 0.000000
    11:35:00: Balanced after 1 trials
   
  WARNING: Negative pressures at 11:35:00 hrs.
  
    11:40:00: Balancing the network:
              Trial  1: relative flow change = 0.000000
    11:40:00: Balanced after 1 trials
   
  WARNING: Negative pressures at 11:40:00 hrs.
  
    11:45:00: Balancing the network:
              Trial  1: relative flow change = 0.000000
    11:45:00: Balanced after 1 trials
   
  WARNING: Negative pressures at 11:45:00 hrs.
  
    11:50:00: Balancing the network:
              Trial  1: relative flow change = 0.000000
    11:50:00: Balanced after 1 trials
   
  WARNING: Negative pressures at 11:50:00 hrs.
  
    11:55:00: Balancing the network:
              Trial  1: relative flow change = 0.000000
    11:55:00: Balanced after 1 trials
   
  WARNING: Negative pressures at 11:55:00 hrs.
  
    12:00:00: Balancing the network:
              Trial  1: relative flow change = 0.120269
              Trial  2: relative flow change = 0.000000
    12:00:00: Balanced after 2 trials
   
  WARNING: Negative pressures at 12:00:00 hrs.
  
    12:05:00: Balancing the network:
              Trial  1: relative flow change = 0.000000
    12:05:00: Balanced after 1 trials
   
  WARNING: Negative pressures at 12:05:00 hrs.
  
    12:10:00: Balancing the network:
              Trial  1: relative flow change = 0.000000
    12:10:00: Balanced after 1 trials
   
  WARNING: Negative pressures at 12:10:00 hrs.
  
    12:15:00: Balancing the network:
              Trial  1: relative flow change = 0.000000
    12:15:00: Balanced after 1 trials
   
  WARNING: Negative pressures at 12:15:00 hrs.
  
    12:20:00: Balancing the network:
              Trial  1: relative flow change = 0.000000
    12:20:00: Balanced after 1 trials
   
  WARNING: Negative pressures at 12:20:00 hrs.
  
    12:25:00: Balancing the network:
              Trial  1: relative flow change = 0.000000
    12:25:00: Balanced after 1 trials
   
  WARNING: Negative pressures at 12:25:00 hrs.
  
    12:30:00: Balancing the network:
              Trial  1: relative flow change = 0.000000
    12:30:00: Balanced after 1 trials
   
  WARNING: Negative pressures at 12:30:00 hrs.
  
    12:35:00: Balancing the network:
              Trial  1: relative flow change = 0.000000
    12:35:00: Balanced after 1 trials
   
  WARNING: Negative pressures at 12:35:00 hrs.
  
    12:40:00: Balancing the network:
              Trial  1: relative flow change = 0.000000
    12:40:00: Balanced after 1 trials
   
  WARNING: Negative pressures at 12:40:00 hrs.
  
    12:45:00: Balancing the network:
              Trial  1: relative flow change = 0.000000
    12:45:00: Balanced after 1 trials
   
  WARNING: Negative pressures at 12:45:00 hrs.
  
    12:50:00: Balancing the network:
              Trial  1: relative flow change = 0.000000
    12:50:00: Balanced after 1 trials
   
  WARNING: Negative pressures at 12:50:00 hrs.
  
    12:55:00: Balancing the network:
              Trial  1: relative flow change = 0.000000
    12:55:00: Balanced after 1 trials
   
  WARNING: Negative pressures at 12:55:00 hrs.
  
    13:00:00: Balancing the network:
              Trial  1: relative flow change = 0.010020
              Trial  2: relative flow change = 0.000000
    13:00:00: Balanced after 2 trials
   
  WARNING: Negative pressures at 13:00:00 hrs.
  
    13:05:00: Balancing the network:
              Trial  1: relative flow change = 0.000000
    13:05:00: Balanced after 1 trials
   
  WARNING: Negative pressures at 13:05:00 hrs.
  
    13:10:00: Balancing the network:
              Trial  1: relative flow change = 0.000000
    13:10:00: Balanced after 1 trials
   
  WARNING: Negative pressures at 13:10:00 hrs.
  
    13:15:00: Balancing the network:
              Trial  1: relative flow change = 0.000000
    13:15:00: Balanced after 1 trials
   
  WARNING: Negative pressures at 13:15:00 hrs.
  
    13:20:00: Balancing the network:
              Trial  1: relative flow change = 0.000000
    13:20:00: Balanced after 1 trials
   
  WARNING: Negative pressures at 13:20:00 hrs.
  
    13:25:00: Balancing the network:
              Trial  1: relative flow change = 0.000000
    13:25:00: Balanced after 1 trials
   
  WARNING: Negative pressures at 13:25:00 hrs.
  
    13:30:00: Balancing the network:
              Trial  1: relative flow change = 0.000000
    13:30:00: Balanced after 1 trials
   
  WARNING: Negative pressures at 13:30:00 hrs.
  
    13:35:00: Balancing the network:
              Trial  1: relative flow change = 0.000000
    13:35:00: Balanced after 1 trials
   
  WARNING: Negative pressures at 13:35:00 hrs.
  
    13:40:00: Balancing the network:
              Trial  1: relative flow change = 0.000000
    13:40:00: Balanced after 1 trials
   
  WARNING: Negative pressures at 13:40:00 hrs.
  
    13:45:00: Balancing the network:
              Trial  1: relative flow change = 0.000000
    13:45:00: Balanced after 1 trials
   
  WARNING: Negative pressures at 13:45:00 hrs.
  
    13:50:00: Balancing the network:
              Trial  1: relative flow change = 0.000000
    13:50:00: Balanced after 1 trials
   
  WARNING: Negative pressures at 13:50:00 hrs.
  
    13:55:00: Balancing the network:
              Trial  1: relative flow change = 0.000000
    13:55:00: Balanced after 1 trials
   
  WARNING: Negative pressures at 13:55:00 hrs.
  
    14:00:00: Balancing the network:
              Trial  1: relative flow change = 0.259921
              Trial  2: relative flow change = 0.000000
    14:00:00: Balanced after 2 trials
   
  WARNING: Negative pressures at 14:00:00 hrs.
  
    14:05:00: Balancing the network:
              Trial  1: relative flow change = 0.000000
    14:05:00: Balanced after 1 trials
   
  WARNING: Negative pressures at 14:05:00 hrs.
  
    14:10:00: Balancing the network:
              Trial  1: relative flow change = 0.000000
    14:10:00: Balanced after 1 trials
   
  WARNING: Negative pressures at 14:10:00 hrs.
  
    14:15:00: Balancing the network:
              Trial  1: relative flow change = 0.000000
    14:15:00: Balanced after 1 trials
   
  WARNING: Negative pressures at 14:15:00 hrs.
  
    14:20:00: Balancing the network:
              Trial  1: relative flow change = 0.000000
    14:20:00: Balanced after 1 trials
   
  WARNING: Negative pressures at 14:20:00 hrs.
  
    14:25:00: Balancing the network:
              Trial  1: relative flow change = 0.000000
    14:25:00: Balanced after 1 trials
   
  WARNING: Negative pressures at 14:25:00 hrs.
  
    14:30:00: Balancing the network:
              Trial  1: relative flow change = 0.000000
    14:30:00: Balanced after 1 trials
   
  WARNING: Negative pressures at 14:30:00 hrs.
  
    14:35:00: Balancing the network:
              Trial  1: relative flow change = 0.000000
    14:35:00: Balanced after 1 trials
   
  WARNING: Negative pressures at 14:35:00 hrs.
  
    14:40:00: Balancing the network:
              Trial  1: relative flow change = 0.000000
    14:40:00: Balanced after 1 trials
   
  WARNING: Negative pressures at 14:40:00 hrs.
  
    14:45:00: Balancing the network:
              Trial  1: relative flow change = 0.000000
    14:45:00: Balanced after 1 trials
   
  WARNING: Negative pressures at 14:45:00 hrs.
  
    14:50:00: Balancing the network:
              Trial  1: relative flow change = 0.000000
    14:50:00: Balanced after 1 trials
   
  WARNING: Negative pressures at 14:50:00 hrs.
  
    14:55:00: Balancing the network:
              Trial  1: relative flow change = 0.000000
    14:55:00: Balanced after 1 trials
   
  WARNING: Negative pressures at 14:55:00 hrs.
  
    15:00:00: Balancing the network:
              Trial  1: relative flow change = 0.045823
              Trial  2: relative flow change = 0.000000
    15:00:00: Balanced after 2 trials
   
  WARNING: Negative pressures at 15:00:00 hrs.
  
    15:05:00: Balancing the network:
              Trial  1: relative flow change = 0.000000
    15:05:00: Balanced after 1 trials
   
  WARNING: Negative pressures at 15:05:00 hrs.
  
    15:10:00: Balancing the network:
              Trial  1: relative flow change = 0.000000
    15:10:00: Balanced after 1 trials
   
  WARNING: Negative pressures at 15:10:00 hrs.
  
    15:15:00: Balancing the network:
              Trial  1: relative flow change = 0.000000
    15:15:00: Balanced after 1 trials
   
  WARNING: Negative pressures at 15:15:00 hrs.
  
    15:20:00: Balancing the network:
              Trial  1: relative flow change = 0.000000
    15:20:00: Balanced after 1 trials
   
  WARNING: Negative pressures at 15:20:00 hrs.
  
    15:25:00: Balancing the network:
              Trial  1: relative flow change = 0.000000
    15:25:00: Balanced after 1 trials
   
  WARNING: Negative pressures at 15:25:00 hrs.
  
    15:30:00: Balancing the network:
              Trial  1: relative flow change = 0.000000
    15:30:00: Balanced after 1 trials
   
  WARNING: Negative pressures at 15:30:00 hrs.
  
    15:35:00: Balancing the network:
              Trial  1: relative flow change = 0.000000
    15:35:00: Balanced after 1 trials
   
  WARNING: Negative pressures at 15:35:00 hrs.
  
    15:40:00: Balancing the network:
              Trial  1: relative flow change = 0.000000
    15:40:00: Balanced after 1 trials
   
  WARNING: Negative pressures at 15:40:00 hrs.
  
    15:45:00: Balancing the network:
              Trial  1: relative flow change = 0.000000
    15:45:00: Balanced after 1 trials
   
  WARNING: Negative pressures at 15:45:00 hrs.
  
    15:50:00: Balancing the network:
              Trial  1: relative flow change = 0.000000
    15:50:00: Balanced after 1 trials
   
  WARNING: Negative pressures at 15:50:00 hrs.
  
    15:55:00: Balancing the network:
              Trial  1: relative flow change = 0.000000
    15:55:00: Balanced after 1 trials
   
  WARNING: Negative pressures at 15:55:00 hrs.
  
    16:00:00: Balancing the network:
              Trial  1: relative flow change = 0.055736
              Trial  2: relative flow change = 0.000000
    16:00:00: Balanced after 2 trials
   
  WARNING: Negative pressures at 16:00:00 hrs.
  
    16:05:00: Balancing the network:
              Trial  1: relative flow change = 0.000000
    16:05:00: Balanced after 1 trials
   
  WARNING: Negative pressures at 16:05:00 hrs.
  
    16:10:00: Balancing the network:
              Trial  1: relative flow change = 0.000000
    16:10:00: Balanced after 1 trials
   
  WARNING: Negative pressures at 16:10:00 hrs.
  
    16:15:00: Balancing the network:
              Trial  1: relative flow change = 0.000000
    16:15:00: Balanced after 1 trials
   
  WARNING: Negative pressures at 16:15:00 hrs.
  
    16:20:00: Balancing the network:
              Trial  1: relative flow change = 0.000000
    16:20:00: Balanced after 1 trials
   
  WARNING: Negative pressures at 16:20:00 hrs.
  
    16:25:00: Balancing the network:
              Trial  1: relative flow change = 0.000000
    16:25:00: Balanced after 1 trials
   
  WARNING: Negative pressures at 16:25:00 hrs.
  
    16:30:00: Balancing the network:
              Trial  1: relative flow change = 0.000000
    16:30:00: Balanced after 1 trials
   
  WARNING: Negative pressures at 16:30:00 hrs.
  
    16:35:00: Balancing the network:
              Trial  1: relative flow change = 0.000000
    16:35:00: Balanced after 1 trials
   
  WARNING: Negative pressures at 16:35:00 hrs.
  
    16:40:00: Balancing the network:
              Trial  1: relative flow change = 0.000000
    16:40:00: Balanced after 1 trials
   
  WARNING: Negative pressures at 16:40:00 hrs.
  
    16:45:00: Balancing the network:
              Trial  1: relative flow change = 0.000000
    16:45:00: Balanced after 1 trials
   
  WARNING: Negative pressures at 16:45:00 hrs.
  
    16:50:00: Balancing the network:
              Trial  1: relative flow change = 0.000000
    16:50:00: Balanced after 1 trials
   
  WARNING: Negative pressures at 16:50:00 hrs.
  
    16:55:00: Balancing the network:
              Trial  1: relative flow change = 0.000000
    16:55:00: Balanced after 1 trials
   
  WARNING: Negative pressures at 16:55:00 hrs.
  
    17:00:00: Balancing the network:
              Trial  1: relative flow change = 0.040441
              Trial  2: relative flow change = 0.000000
    17:00:00: Balanced after 2 trials
   
  WARNING: Negative pressures at 17:00:00 hrs.
  
    17:05:00: Balancing the network:
              Trial  1: relative flow change = 0.000000
    17:05:00: Balanced after 1 trials
   
  WARNING: Negative pressures at 17:05:00 hrs.
  
    17:10:00: Balancing the network:
              Trial  1: relative flow change = 0.000000
    17:10:00: Balanced after 1 trials
   
  WARNING: Negative pressures at 17:10:00 hrs.
  
    17:15:00: Balancing the network:
              Trial  1: relative flow change = 0.000000
    17:15:00: Balanced after 1 trials
   
  WARNING: Negative pressures at 17:15:00 hrs.
  
    17:20:00: Balancing the network:
              Trial  1: relative flow change = 0.000000
    17:20:00: Balanced after 1 trials
   
  WARNING: Negative pressures at 17:20:00 hrs.
  
    17:25:00: Balancing the network:
              Trial  1: relative flow change = 0.000000
    17:25:00: Balanced after 1 trials
   
  WARNING: Negative pressures at 17:25:00 hrs.
  
    17:30:00: Balancing the network:
              Trial  1: relative flow change = 0.000000
    17:30:00: Balanced after 1 trials
   
  WARNING: Negative pressures at 17:30:00 hrs.
  
    17:35:00: Balancing the network:
              Trial  1: relative flow change = 0.000000
    17:35:00: Balanced after 1 trials
   
  WARNING: Negative pressures at 17:35:00 hrs.
  
    17:40:00: Balancing the network:
              Trial  1: relative flow change = 0.000000
    17:40:00: Balanced after 1 trials
   
  WARNING: Negative pressures at 17:40:00 hrs.
  
    17:45:00: Balancing the network:
              Trial  1: relative flow change = 0.000000
    17:45:00: Balanced after 1 trials
   
  WARNING: Negative pressures at 17:45:00 hrs.
  
    17:50:00: Balancing the network:
              Trial  1: relative flow change = 0.000000
    17:50:00: Balanced after 1 trials
   
  WARNING: Negative pressures at 17:50:00 hrs.
  
    17:55:00: Balancing the network:
              Trial  1: relative flow change = 0.000000
    17:55:00: Balanced after 1 trials
   
  WARNING: Negative pressures at 17:55:00 hrs.
  
    18:00:00: Balancing the network:
              Trial  1: relative flow change = 0.179135
              Trial  2: relative flow change = 0.000000
    18:00:00: Balanced after 2 trials
   
  WARNING: Negative pressures at 18:00:00 hrs.
  
    18:05:00: Balancing the network:
              Trial  1: relative flow change = 0.000000
    18:05:00: Balanced after 1 trials
   
  WARNING: Negative pressures at 18:05:00 hrs.
  
    18:10:00: Balancing the network:
              Trial  1: relative flow change = 0.000000
    18:10:00: Balanced after 1 trials
   
  WARNING: Negative pressures at 18:10:00 hrs.
  
    18:15:00: Balancing the network:
              Trial  1: relative flow change = 0.000000
    18:15:00: Balanced after 1 trials
   
  WARNING: Negative pressures at 18:15:00 hrs.
  
    18:20:00: Balancing the network:
              Trial  1: relative flow change = 0.000000
    18:20:00: Balanced after 1 trials
   
  WARNING: Negative pressures at 18:20:00 hrs.
  
    18:25:00: Balancing the network:
              Trial  1: relative flow change = 0.000000
    18:25:00: Balanced after 1 trials
   
  WARNING: Negative pressures at 18:25:00 hrs.
  
    18:30:00: Balancing the network:
              Trial  1: relative flow change = 0.000000
    18:30:00: Balanced after 1 trials
   
  WARNING: Negative pressures at 18:30:00 hrs.
  
    18:35:00: Balancing the network:
              Trial  1: relative flow change = 0.000000
    18:35:00: Balanced after 1 trials
   
  WARNING: Negative pressures at 18:35:00 hrs.
  
    18:40:00: Balancing the network:
              Trial  1: relative flow change = 0.000000
    18:40:00: Balanced after 1 trials
   
  WARNING: Negative pressures at 18:40:00 hrs.
  
    18:45:00: Balancing the network:
              Trial  1: relative flow change = 0.000000
    18:45:00: Balanced after 1 trials
   
  WARNING: Negative pressures at 18:45:00 hrs.
  
    18:50:00: Balancing the network:
              Trial  1: relative flow change = 0.000000
    18:50:00: Balanced after 1 trials
   
  WARNING: Negative pressures at 18:50:00 hrs.
  
    18:55:00: Balancing the network:
              Trial  1: relative flow change = 0.000000
    18:55:00: Balanced after 1 trials
   
  WARNING: Negative pressures at 18:55:00 hrs.
  
    19:00:00: Balancing the network:
              Trial  1: relative flow change = 0.116819
              Trial  2: relative flow change = 0.000000
    19:00:00: Balanced after 2 trials
   
  WARNING: Negative pressures at 19:00:00 hrs.
  
    19:05:00: Balancing the network:
              Trial  1: relative flow change = 0.000000
    19:05:00: Balanced after 1 trials
   
  WARNING: Negative pressures at 19:05:00 hrs.
  
    19:10:00: Balancing the network:
              Trial  1: relative flow change = 0.000000
    19:10:00: Balanced after 1 trials
   
  WARNING: Negative pressures at 19:10:00 hrs.
  
    19:15:00: Balancing the network:
              Trial  1: relative flow change = 0.000000
    19:15:00: Balanced after 1 trials
   
  WARNING: Negative pressures at 19:15:00 hrs.
  
    19:20:00: Balancing the network:
              Trial  1: relative flow change = 0.000000
    19:20:00: Balanced after 1 trials
   
  WARNING: Negative pressures at 19:20:00 hrs.
  
    19:25:00: Balancing the network:
              Trial  1: relative flow change = 0.000000
    19:25:00: Balanced after 1 trials
   
  WARNING: Negative pressures at 19:25:00 hrs.
  
    19:30:00: Balancing the network:
              Trial  1: relative flow change = 0.000000
    19:30:00: Balanced after 1 trials
   
  WARNING: Negative pressures at 19:30:00 hrs.
  
    19:35:00: Balancing the network:
              Trial  1: relative flow change = 0.000000
    19:35:00: Balanced after 1 trials
   
  WARNING: Negative pressures at 19:35:00 hrs.
  
    19:40:00: Balancing the network:
              Trial  1: relative flow change = 0.000000
    19:40:00: Balanced after 1 trials
   
  WARNING: Negative pressures at 19:40:00 hrs.
  
    19:45:00: Balancing the network:
              Trial  1: relative flow change = 0.000000
    19:45:00: Balanced after 1 trials
   
  WARNING: Negative pressures at 19:45:00 hrs.
  
    19:50:00: Balancing the network:
              Trial  1: relative flow change = 0.000000
    19:50:00: Balanced after 1 trials
   
  WARNING: Negative pressures at 19:50:00 hrs.
  
    19:55:00: Balancing the network:
              Trial  1: relative flow change = 0.000000
    19:55:00: Balanced after 1 trials
   
  WARNING: Negative pressures at 19:55:00 hrs.
  
    20:00:00: Balancing the network:
              Trial  1: relative flow change = 0.113484
              Trial  2: relative flow change = 0.000000
    20:00:00: Balanced after 2 trials
   
  WARNING: Negative pressures at 20:00:00 hrs.
  
    20:05:00: Balancing the network:
              Trial  1: relative flow change = 0.000000
    20:05:00: Balanced after 1 trials
   
  WARNING: Negative pressures at 20:05:00 hrs.
  
    20:10:00: Balancing the network:
              Trial  1: relative flow change = 0.000000
    20:10:00: Balanced after 1 trials
   
  WARNING: Negative pressures at 20:10:00 hrs.
  
    20:15:00: Balancing the network:
              Trial  1: relative flow change = 0.000000
    20:15:00: Balanced after 1 trials
   
  WARNING: Negative pressures at 20:15:00 hrs.
  
    20:20:00: Balancing the network:
              Trial  1: relative flow change = 0.000000
    20:20:00: Balanced after 1 trials
   
  WARNING: Negative pressures at 20:20:00 hrs.
  
    20:25:00: Balancing the network:
              Trial  1: relative flow change = 0.000000
    20:25:00: Balanced after 1 trials
   
  WARNING: Negative pressures at 20:25:00 hrs.
  
    20:30:00: Balancing the network:
              Trial  1: relative flow change = 0.000000
    20:30:00: Balanced after 1 trials
   
  WARNING: Negative pressures at 20:30:00 hrs.
  
    20:35:00: Balancing the network:
              Trial  1: relative flow change = 0.000000
    20:35:00: Balanced after 1 trials
   
  WARNING: Negative pressures at 20:35:00 hrs.
  
    20:40:00: Balancing the network:
              Trial  1: relative flow change = 0.000000
    20:40:00: Balanced after 1 trials
   
  WARNING: Negative pressures at 20:40:00 hrs.
  
    20:45:00: Balancing the network:
              Trial  1: relative flow change = 0.000000
    20:45:00: Balanced after 1 trials
   
  WARNING: Negative pressures at 20:45:00 hrs.
  
    20:50:00: Balancing the network:
              Trial  1: relative flow change = 0.000000
    20:50:00: Balanced after 1 trials
   
  WARNING: Negative pressures at 20:50:00 hrs.
  
    20:55:00: Balancing the network:
              Trial  1: relative flow change = 0.000000
    20:55:00: Balanced after 1 trials
   
  WARNING: Negative pressures at 20:55:00 hrs.
  
    21:00:00: Balancing the network:
              Trial  1: relative flow change = 0.426335
              Trial  2: relative flow change = 0.000001
    21:00:00: Balanced after 2 trials
   
  WARNING: Negative pressures at 21:00:00 hrs.
  
    21:05:00: Balancing the network:
              Trial  1: relative flow change = 0.000000
    21:05:00: Balanced after 1 trials
   
  WARNING: Negative pressures at 21:05:00 hrs.
  
    21:10:00: Balancing the network:
              Trial  1: relative flow change = 0.000000
    21:10:00: Balanced after 1 trials
   
  WARNING: Negative pressures at 21:10:00 hrs.
  
    21:15:00: Balancing the network:
              Trial  1: relative flow change = 0.000000
    21:15:00: Balanced after 1 trials
   
  WARNING: Negative pressures at 21:15:00 hrs.
  
    21:20:00: Balancing the network:
              Trial  1: relative flow change = 0.000000
    21:20:00: Balanced after 1 trials
   
  WARNING: Negative pressures at 21:20:00 hrs.
  
    21:25:00: Balancing the network:
              Trial  1: relative flow change = 0.000000
    21:25:00: Balanced after 1 trials
   
  WARNING: Negative pressures at 21:25:00 hrs.
  
    21:30:00: Balancing the network:
              Trial  1: relative flow change = 0.000000
    21:30:00: Balanced after 1 trials
   
  WARNING: Negative pressures at 21:30:00 hrs.
  
    21:35:00: Balancing the network:
              Trial  1: relative flow change = 0.000000
    21:35:00: Balanced after 1 trials
   
  WARNING: Negative pressures at 21:35:00 hrs.
  
    21:40:00: Balancing the network:
              Trial  1: relative flow change = 0.000000
    21:40:00: Balanced after 1 trials
   
  WARNING: Negative pressures at 21:40:00 hrs.
  
    21:45:00: Balancing the network:
              Trial  1: relative flow change = 0.000000
    21:45:00: Balanced after 1 trials
   
  WARNING: Negative pressures at 21:45:00 hrs.
  
    21:50:00: Balancing the network:
              Trial  1: relative flow change = 0.000000
    21:50:00: Balanced after 1 trials
   
  WARNING: Negative pressures at 21:50:00 hrs.
  
    21:55:00: Balancing the network:
              Trial  1: relative flow change = 0.000000
    21:55:00: Balanced after 1 trials
   
  WARNING: Negative pressures at 21:55:00 hrs.
  
    22:00:00: Balancing the network:
              Trial  1: relative flow change = 0.214923
              Trial  2: relative flow change = 0.000001
    22:00:00: Balanced after 2 trials
   
  WARNING: Negative pressures at 22:00:00 hrs.
  
    22:05:00: Balancing the network:
              Trial  1: relative flow change = 0.000000
    22:05:00: Balanced after 1 trials
   
  WARNING: Negative pressures at 22:05:00 hrs.
  
    22:10:00: Balancing the network:
              Trial  1: relative flow change = 0.000000
    22:10:00: Balanced after 1 trials
   
  WARNING: Negative pressures at 22:10:00 hrs.
  
    22:15:00: Balancing the network:
              Trial  1: relative flow change = 0.000000
    22:15:00: Balanced after 1 trials
   
  WARNING: Negative pressures at 22:15:00 hrs.
  
    22:20:00: Balancing the network:
              Trial  1: relative flow change = 0.000000
    22:20:00: Balanced after 1 trials
   
  WARNING: Negative pressures at 22:20:00 hrs.
  
    22:25:00: Balancing the network:
              Trial  1: relative flow change = 0.000000
    22:25:00: Balanced after 1 trials
   
  WARNING: Negative pressures at 22:25:00 hrs.
  
    22:30:00: Balancing the network:
              Trial  1: relative flow change = 0.000000
    22:30:00: Balanced after 1 trials
   
  WARNING: Negative pressures at 22:30:00 hrs.
  
    22:35:00: Balancing the network:
              Trial  1: relative flow change = 0.000000
    22:35:00: Balanced after 1 trials
   
  WARNING: Negative pressures at 22:35:00 hrs.
  
    22:40:00: Balancing the network:
              Trial  1: relative flow change = 0.000000
    22:40:00: Balanced after 1 trials
   
  WARNING: Negative pressures at 22:40:00 hrs.
  
    22:45:00: Balancing the network:
              Trial  1: relative flow change = 0.000000
    22:45:00: Balanced after 1 trials
   
  WARNING: Negative pressures at 22:45:00 hrs.
  
    22:50:00: Balancing the network:
              Trial  1: relative flow change = 0.000000
    22:50:00: Balanced after 1 trials
   
  WARNING: Negative pressures at 22:50:00 hrs.
  
    22:55:00: Balancing the network:
              Trial  1: relative flow change = 0.000000
    22:55:00: Balanced after 1 trials
   
  WARNING: Negative pressures at 22:55:00 hrs.
  
    23:00:00: Balancing the network:
              Trial  1: relative flow change = 0.120400
              Trial  2: relative flow change = 0.000000
    23:00:00: Balanced after 2 trials
   
  WARNING: Negative pressures at 23:00:00 hrs.
  
    23:05:00: Balancing the network:
              Trial  1: relative flow change = 0.000000
    23:05:00: Balanced after 1 trials
   
  WARNING: Negative pressures at 23:05:00 hrs.
  
    23:10:00: Balancing the network:
              Trial  1: relative flow change = 0.000000
    23:10:00: Balanced after 1 trials
   
  WARNING: Negative pressures at 23:10:00 hrs.
  
    23:15:00: Balancing the network:
              Trial  1: relative flow change = 0.000000
    23:15:00: Balanced after 1 trials
   
  WARNING: Negative pressures at 23:15:00 hrs.
  
    23:20:00: Balancing the network:
              Trial  1: relative flow change = 0.000000
    23:20:00: Balanced after 1 trials
   
  WARNING: Negative pressures at 23:20:00 hrs.
  
    23:25:00: Balancing the network:
              Trial  1: relative flow change = 0.000000
    23:25:00: Balanced after 1 trials
   
  WARNING: Negative pressures at 23:25:00 hrs.
  
    23:30:00: Balancing the network:
              Trial  1: relative flow change = 0.000000
    23:30:00: Balanced after 1 trials
   
  WARNING: Negative pressures at 23:30:00 hrs.
  
    23:35:00: Balancing the network:
              Trial  1: relative flow change = 0.000000
    23:35:00: Balanced after 1 trials
   
  WARNING: Negative pressures at 23:35:00 hrs.
  
    23:40:00: Balancing the network:
              Trial  1: relative flow change = 0.000000
    23:40:00: Balanced after 1 trials
   
  WARNING: Negative pressures at 23:40:00 hrs.
  
    23:45:00: Balancing the network:
              Trial  1: relative flow change = 0.000000
    23:45:00: Balanced after 1 trials
   
  WARNING: Negative pressures at 23:45:00 hrs.
  
    23:50:00: Balancing the network:
              Trial  1: relative flow change = 0.000000
    23:50:00: Balanced after 1 trials
   
  WARNING: Negative pressures at 23:50:00 hrs.
  
    23:55:00: Balancing the network:
              Trial  1: relative flow change = 0.000000
    23:55:00: Balanced after 1 trials
   
  WARNING: Negative pressures at 23:55:00 hrs.
  
    24:00:00: Balancing the network:
              Trial  1: relative flow change = 0.389915
              Trial  2: relative flow change = 0.000003
    24:00:00: Balanced after 2 trials
   
  WARNING: Negative pressures at 24:00:00 hrs.
  
  Analysis ended Thu Nov  2 15:41:58 2023
